
     RDKit          3D

  4  3  0  0  0  0  0  0  0  0999 V2000
   -1.3060   -0.4675    0.2225 C   0  0  0  0  0  0  0  0  0  0  0  0
   -0.1404   -0.1831   -0.6519 C   0  0  0  0  0  0  0  0  0  0  0  0
    0.8531    0.7802   -0.0408 C   0  0  0  0  0  0  0  0  0  0  0  0
    1.3596    0.2682    1.1512 O   0  0  0  0  0  0  0  0  0  0  0  0
  1  2  1  0
  2  3  1  0
  3  4  1  0
M  END
$$$$
